@<TRIPOS>MOLECULE
RES
243 258 1 0 1
SMALL
NO_CHARGES
@<TRIPOS>CRYSIN
   22.2580    27.0060    30.4770    90.0000    90.0000    90.0000  1  1
@<TRIPOS>ATOM
       1 C           -0.1410    -0.8680     0.0330 C             1 RES     
       2 F           -1.1020    -1.7020     0.5730 F             1 RES     
       3 C           -0.8010     0.3400    -0.6810 C             1 RES     
       4 F           -1.8500     0.8520     0.0640 F             1 RES     
       5 C            0.1830     1.4790    -1.0500 C             1 RES     
       6 C            1.6110     0.9790    -0.8940 C             1 RES     
       7 C            2.7470     1.8960    -1.2700 C             1 RES     
       8 O            3.1140     1.5150    -2.5580 O             1 RES     
       9 C            3.9010     1.5550    -0.2910 C             1 RES     
      10 C            4.1330     2.6130     0.8070 C             1 RES     
      11 C            4.2110     4.1080     0.4830 C             1 RES     
      12 C            5.3360     4.7590    -0.2810 C             1 RES     
      13 C            5.5120     6.2610     0.0240 C             1 RES     
      14 C            5.0010     7.3700    -1.0090 C             1 RES     
      15 C            4.7750     6.7260    -2.4430 C             1 RES     
      16 C            3.5880     5.8490    -2.8150 C             1 RES     
      17 C            3.9060     4.3600    -2.8000 C             1 RES     
      18 C            5.2340     3.9420    -3.4730 C             1 RES     
      19 O            5.4590     2.5940    -3.1030 O             1 RES     
      20 C            6.6410     2.0530    -3.6530 C             1 RES     
      21 C            6.4870     0.5320    -3.7240 C             1 RES     
      22 C            7.8060    -0.1640    -4.0860 C             1 RES     
      23 C            7.6200    -1.6870    -4.1370 C             1 RES     
      24 C            8.9470    -2.4080    -4.3960 C             1 RES     
      25 C            8.7470    -3.9220    -4.4350 C             1 RES     
      26 C            6.3830     4.8480    -3.0030 C             1 RES     
      27 C            6.0300     6.2960    -3.2460 C             1 RES     
      28 C            6.0500     8.5090    -1.3600 C             1 RES     
      29 C            6.7210     9.3720    -0.2830 C             1 RES     
      30 C            7.8620    10.2290    -0.9010 C             1 RES     
      31 C            7.4550    11.0510    -2.1510 C             1 RES     
      32 O            8.6110    11.7090    -2.6770 O             1 RES     
      33 C            8.4190    12.2050    -3.9990 C             1 RES     
      34 C            9.3890    13.3510    -4.3270 C             1 RES     
      35 C            9.2750    13.7480    -5.8170 C             1 RES     
      36 C           10.1590    14.9550    -6.1710 C             1 RES     
      37 C           10.0810    15.2750    -7.6740 C             1 RES     
      38 C           10.9080    16.5090    -8.0310 C             1 RES     
      39 C            6.7740    10.0960    -3.1460 C             1 RES     
      40 C            5.5720     9.4520    -2.4910 C             1 RES     
      41 C            3.6570     7.9720    -0.3650 C             1 RES     
      42 C            3.7670     9.0180     0.7940 C             1 RES     
      43 C            4.1440    10.4900     0.6520 C             1 RES     
      44 O            3.0500    11.2800     0.2390 O             1 RES     
      45 C            3.1930    11.5880    -1.1350 C             1 RES     
      46 C            3.0590    13.0950    -1.3810 C             1 RES     
      47 C            3.1480    13.3870    -2.8890 C             1 RES     
      48 C            3.0550    14.8840    -3.2060 C             1 RES     
      49 C            3.1010    15.1120    -4.7250 C             1 RES     
      50 C            3.0140    16.5940    -5.0770 C             1 RES     
      51 C            4.6520    10.9560     2.0300 C             1 RES     
      52 C            3.7170    10.5640     3.2040 C             1 RES     
      53 C            4.3050    11.0560     4.5020 C             1 RES     
      54 S            3.5240    12.6100     5.0450 S             1 RES     
      55 C            3.9420    12.2140     6.7730 C             1 RES     
      56 C            2.7820    11.8750     7.7020 C             1 RES     
      57 S            1.1910    11.4430     6.8530 S             1 RES     
      58 C            0.8680     9.9270     7.8050 C             1 RES     
      59 C            0.5430     8.7320     6.7910 C             1 RES     
      60 C            0.1000     7.2750     7.2570 C             1 RES     
      61 C           -1.3590     7.2230     7.7310 C             1 RES     
      62 O           -2.1760     7.9620     6.8690 O             1 RES     
      63 C           -1.7540     5.7620     7.5910 C             1 RES     
      64 C           -1.2410     4.9040     8.7490 C             1 RES     
      65 C           -1.6460     3.4500     8.5090 C             1 RES     
      66 F           -1.1930     2.6750     9.5620 F             1 RES     
      67 C           -1.0140     2.9440     7.2170 C             1 RES     
      68 F           -1.3250     1.6200     6.9690 F             1 RES     
      69 C           -1.2780     3.8320     5.9840 C             1 RES     
      70 C           -1.0860     5.3360     6.2900 C             1 RES     
      71 C            0.2700     6.0860     6.2150 C             1 RES     
      72 C            1.6030     5.2230     6.2670 C             1 RES     
      73 C            2.2300     4.9380     4.9070 C             1 RES     
      74 N            3.2240     5.9280     4.5540 N             1 RES     
      75 C            1.5740     3.8880     7.0430 C             1 RES     
      76 N            2.8670     3.5130     7.5900 N             1 RES     
      77 C            2.0620     9.8240     8.7580 C             1 RES     
      78 C            3.2950    10.7090     8.5520 C             1 RES     
      79 C            4.8850    10.4780     8.1770 C             1 RES     
      80 C            5.7870     9.1170     8.0760 C             1 RES     
      81 C            6.9440     8.9870     7.0010 C             1 RES     
      82 C            7.5870     7.5850     6.9540 C             1 RES     
      83 C            6.6770     6.5210     7.5480 C             1 RES     
      84 O            7.2420     5.2270     7.3980 O             1 RES     
      85 C            6.9240     4.6330     6.1370 C             1 RES     
      86 C            5.8760     3.5110     6.3010 C             1 RES     
      87 C            5.6710     2.6390     5.0350 C             1 RES     
      88 C            4.5880     1.5570     5.2570 C             1 RES     
      89 C            4.4170     0.6270     4.0410 C             1 RES     
      90 C            3.3190    -0.4170     4.2720 C             1 RES     
      91 C            6.6060     6.8980     9.0540 C             1 RES     
      92 C            6.2270     8.3840     9.3510 C             1 RES     
      93 C            5.6090    11.5010     9.1060 C             1 RES     
      94 C            5.5160    11.1230    10.5970 C             1 RES     
      95 C            6.0870    12.2330    11.4720 C             1 RES     
      96 C            7.5250    12.5580    11.0740 C             1 RES     
      97 O            7.9900    13.6160    11.8710 O             1 RES     
      98 C            9.3540    13.3950    12.1350 C             1 RES     
      99 C            9.8420    14.4870    13.0860 C             1 RES     
     100 C           11.3550    14.3960    13.3070 C             1 RES     
     101 C           11.8270    15.5090    14.2480 C             1 RES     
     102 C           13.3500    15.4810    14.4100 C             1 RES     
     103 C           13.8190    16.5900    15.3460 C             1 RES     
     104 C            7.5830    12.9460     9.5930 C             1 RES     
     105 C            7.0670    11.7990     8.7380 C             1 RES     
     106 C            4.8570    11.0150     6.7730 C             1 RES     
     107 C            4.4250    10.0590     5.6580 C             1 RES     
     108 C            3.3000     8.9720     5.8820 C             1 RES     
     109 O            3.7560     7.7080     6.4900 O             1 RES     
     110 C            3.3080     7.5410     7.8570 C             1 RES     
     111 C            3.3460     6.2490     8.7050 C             1 RES     
     112 C            3.0810     6.5460    10.2190 C             1 RES     
     113 C            2.9590     5.2750    11.0760 C             1 RES     
     114 C            2.8490     5.6160    12.5760 C             1 RES     
     115 C            2.7250     4.3550    13.4330 C             1 RES     
     116 C            2.5300     8.7930     4.5170 C             1 RES     
     117 C            3.3720     9.0690     3.2320 C             1 RES     
     118 C            2.6800     8.8350     1.8730 C             1 RES     
     119 S            1.9440     7.2040     1.6620 S             1 RES     
     120 C            3.2320     6.7850     0.4570 C             1 RES     
     121 C            4.5350     6.4260     1.1600 C             1 RES     
     122 S            4.3710     4.9000     2.0740 S             1 RES     
     123 C            3.4250     0.2710     0.4430 C             1 RES     
     124 C            3.8610    -0.9660    -0.3670 C             1 RES     
     125 C            3.1050    -2.2240     0.0690 C             1 RES     
     126 N            3.2000    -3.2770    -0.9300 N             1 RES     
     127 C            5.3780    -1.1450    -0.1770 C             1 RES     
     128 N            5.8950    -2.2470    -0.9680 N             1 RES     
     129 C            1.9160     0.5480     0.5030 C             1 RES     
     130 C            0.8750    -0.4230     1.0920 C             1 RES     
     131 H            0.0420     2.3490    -0.3720 H             1 RES     
     132 H            3.2670     2.5480     1.5060 H             1 RES     
     133 H            6.2070     4.1490    -0.4790 H             1 RES     
     134 H            2.6670     6.1000    -2.2500 H             1 RES     
     135 H            3.0600     3.8270    -3.2730 H             1 RES     
     136 H            7.4840     2.2880    -2.9660 H             1 RES     
     137 H            6.8570     2.4390    -4.6760 H             1 RES     
     138 H            5.6950     0.2810    -4.4640 H             1 RES     
     139 H            6.1650     0.1630    -2.7300 H             1 RES     
     140 H            8.5630     0.0830    -3.3080 H             1 RES     
     141 H            8.1730     0.2000    -5.0710 H             1 RES     
     142 H            6.8910    -1.9400    -4.9380 H             1 RES     
     143 H            7.2170    -2.0390    -3.1660 H             1 RES     
     144 H            9.6660    -2.1660    -3.5820 H             1 RES     
     145 H            9.3760    -2.0740    -5.3650 H             1 RES     
     146 H            8.3340    -4.2840    -3.4690 H             1 RES     
     147 H            9.7220    -4.4230    -4.6120 H             1 RES     
     148 H            8.0500    -4.1980    -5.2540 H             1 RES     
     149 H            7.3180     4.6110    -3.5530 H             1 RES     
     150 H            6.9190     6.9340    -3.0650 H             1 RES     
     151 H            7.1320     8.7380     0.5280 H             1 RES     
     152 H            8.2880    10.9040    -0.1290 H             1 RES     
     153 H            7.3920    12.6140    -4.1440 H             1 RES     
     154 H            8.6130    11.3740    -4.7160 H             1 RES     
     155 H           10.4340    13.0300    -4.1260 H             1 RES     
     156 H            9.1480    14.2200    -3.6790 H             1 RES     
     157 H            8.2200    14.0030    -6.0580 H             1 RES     
     158 H            9.5790    12.8780    -6.4400 H             1 RES     
     159 H           11.2170    14.7390    -5.9050 H             1 RES     
     160 H            9.8140    15.8360    -5.5870 H             1 RES     
     161 H            9.0250    15.4640    -7.9680 H             1 RES     
     162 H           10.4610    14.4090    -8.2580 H             1 RES     
     163 H           10.5230    17.4010    -7.4930 H             1 RES     
     164 H           10.8400    16.7010    -9.1230 H             1 RES     
     165 H           11.9760    16.3540    -7.7650 H             1 RES     
     166 H            6.3980    10.6410    -4.0360 H             1 RES     
     167 H            5.0160     8.9500    -3.3050 H             1 RES     
     168 H            2.4040    11.0410    -1.6950 H             1 RES     
     169 H            4.1780    11.3020    -1.5580 H             1 RES     
     170 H            3.8780    13.6250    -0.8450 H             1 RES     
     171 H            2.0830    13.4530    -0.9890 H             1 RES     
     172 H            2.3170    12.8550    -3.4030 H             1 RES     
     173 H            4.1150    13.0000    -3.2840 H             1 RES     
     174 H            3.9030    15.4180    -2.7230 H             1 RES     
     175 H            2.1000    15.2900    -2.8050 H             1 RES     
     176 H            2.2490    14.5830    -5.2050 H             1 RES     
     177 H            4.0500    14.7030    -5.1380 H             1 RES     
     178 H            2.0650    17.0270    -4.6960 H             1 RES     
     179 H            3.0390    16.7140    -6.1820 H             1 RES     
     180 H            3.8730    17.1460    -4.6410 H             1 RES     
     181 H            4.8520    12.0490     2.0160 H             1 RES     
     182 H           -0.1370     9.0820     5.9870 H             1 RES     
     183 H           -1.6870     5.2560     9.7020 H             1 RES     
     184 H           -2.3340     3.6730     5.6880 H             1 RES     
     185 H            1.4880     4.7700     4.1020 H             1 RES     
     186 H            4.0970     5.7060     5.0830 H             1 RES     
     187 H            1.2770     3.0670     6.3610 H             1 RES     
     188 H            2.7010     2.8020     8.3380 H             1 RES     
     189 H            1.7800     9.7140     9.7970 H             1 RES     
     190 H            7.7580     9.7190     7.1310 H             1 RES     
     191 H            6.5690     9.1420     5.9820 H             1 RES     
     192 H            7.9610     7.3480     5.9340 H             1 RES     
     193 H            7.8590     4.1780     5.7510 H             1 RES     
     194 H            6.5820     5.3610     5.3620 H             1 RES     
     195 H            4.9320     4.0050     6.5650 H             1 RES     
     196 H            6.1900     2.8400     7.1270 H             1 RES     
     197 H            6.6330     2.1380     4.7840 H             1 RES     
     198 H            5.3760     3.2760     4.1770 H             1 RES     
     199 H            3.6170     2.0550     5.4620 H             1 RES     
     200 H            4.8630     0.9330     6.1350 H             1 RES     
     201 H            5.3710     0.0980     3.8290 H             1 RES     
     202 H            4.1400     1.2240     3.1540 H             1 RES     
     203 H            3.5660    -1.0580     5.1450 H             1 RES     
     204 H            3.2240    -1.0680     3.3760 H             1 RES     
     205 H            2.3400     0.0770     4.4480 H             1 RES     
     206 H            6.0610     6.1720     9.6890 H             1 RES     
     207 H            5.4990     8.4660    10.1740 H             1 RES     
     208 H            4.4640    10.9410    10.9020 H             1 RES     
     209 H            6.0470    11.9230    12.5380 H             1 RES     
     210 H            9.9400    13.4530    11.1870 H             1 RES     
     211 H            9.5210    12.4080    12.6210 H             1 RES     
     212 H            9.3030    14.3900    14.0540 H             1 RES     
     213 H            9.6040    15.4780    12.6400 H             1 RES     
     214 H           11.8650    14.5070    12.3250 H             1 RES     
     215 H           11.6160    13.4050    13.7400 H             1 RES     
     216 H           11.3410    15.3800    15.2400 H             1 RES     
     217 H           11.5280    16.4950    13.8290 H             1 RES     
     218 H           13.8290    15.6240    13.4160 H             1 RES     
     219 H           13.6670    14.4990    14.8230 H             1 RES     
     220 H           13.5230    17.5830    14.9450 H             1 RES     
     221 H           14.9240    16.5570    15.4360 H             1 RES     
     222 H           13.3730    16.4560    16.3540 H             1 RES     
     223 H            8.6290    13.1650     9.2940 H             1 RES     
     224 H            7.7050    10.9130     8.9390 H             1 RES     
     225 H            2.2790     7.7060     7.9220 H             1 RES     
     226 H            3.7830     8.2230     8.5180 H             1 RES     
     227 H            4.2820     5.6890     8.5750 H             1 RES     
     228 H            2.4970     5.6400     8.4500 H             1 RES     
     229 H            2.1440     7.1360    10.3400 H             1 RES     
     230 H            3.9060     7.1480    10.6290 H             1 RES     
     231 H            3.8610     4.6460    10.9260 H             1 RES     
     232 H            2.0580     4.7060    10.7580 H             1 RES     
     233 H            1.9650     6.2630    12.7650 H             1 RES     
     234 H            3.7590     6.1690    12.8960 H             1 RES     
     235 H            1.7970     3.8030    13.1730 H             1 RES     
     236 H            2.6820     4.6330    14.5090 H             1 RES     
     237 H            3.6040     3.6940    13.2730 H             1 RES     
     238 H            1.8650     7.9110     4.4910 H             1 RES     
     239 H            3.4420    -2.5840     1.0640 H             1 RES     
     240 H            2.6740    -2.9520    -1.7730 H             1 RES     
     241 H            5.9220    -0.2190    -0.4590 H             1 RES     
     242 H            5.8050    -3.1120    -0.3890 H             1 RES     
     243 H            1.3150    -1.2480     1.6860 H             1 RES     
@<TRIPOS>BOND
       1        2        1 1
       2        3        1 1
       3      130        1 1
       4        4        3 1
       5        5        3 1
       6        6        5 1
       7      131        5 1
       8        7        6 1
       9      129        6 1
      10        8        7 1
      11        9        7 1
      12       10        9 1
      13      123        9 1
      14       11       10 1
      15      132       10 1
      16       12       11 1
      17      122       11 1
      18       13       12 1
      19      133       12 1
      20       14       13 1
      21      121       13 1
      22       15       14 1
      23       28       14 1
      24       41       14 1
      25       16       15 1
      26       27       15 1
      27       17       16 1
      28      134       16 1
      29       18       17 1
      30      135       17 1
      31       19       18 1
      32       26       18 1
      33       20       19 1
      34       21       20 1
      35      136       20 1
      36      137       20 1
      37       22       21 1
      38      138       21 1
      39      139       21 1
      40       23       22 1
      41      140       22 1
      42      141       22 1
      43       24       23 1
      44      142       23 1
      45      143       23 1
      46       25       24 1
      47      144       24 1
      48      145       24 1
      49      146       25 1
      50      147       25 1
      51      148       25 1
      52       27       26 1
      53      149       26 1
      54      150       27 1
      55       29       28 1
      56       40       28 1
      57       30       29 1
      58      151       29 1
      59       31       30 1
      60      152       30 1
      61       32       31 1
      62       39       31 1
      63       33       32 1
      64       34       33 1
      65      153       33 1
      66      154       33 1
      67       35       34 1
      68      155       34 1
      69      156       34 1
      70       36       35 1
      71      157       35 1
      72      158       35 1
      73       37       36 1
      74      159       36 1
      75      160       36 1
      76       38       37 1
      77      161       37 1
      78      162       37 1
      79      163       38 1
      80      164       38 1
      81      165       38 1
      82       40       39 1
      83      166       39 1
      84      167       40 1
      85       42       41 1
      86      120       41 1
      87       43       42 1
      88      118       42 1
      89       44       43 1
      90       51       43 1
      91       45       44 1
      92       46       45 1
      93      168       45 1
      94      169       45 1
      95       47       46 1
      96      170       46 1
      97      171       46 1
      98       48       47 1
      99      172       47 1
     100      173       47 1
     101       49       48 1
     102      174       48 1
     103      175       48 1
     104       50       49 1
     105      176       49 1
     106      177       49 1
     107      178       50 1
     108      179       50 1
     109      180       50 1
     110       52       51 1
     111      181       51 1
     112       53       52 1
     113      117       52 1
     114       54       53 1
     115      107       53 1
     116       55       54 1
     117       56       55 1
     118      106       55 1
     119       57       56 1
     120       78       56 1
     121       58       57 1
     122       59       58 1
     123       77       58 1
     124       60       59 1
     125      182       59 1
     126       61       60 1
     127       71       60 1
     128       62       61 1
     129       63       61 1
     130       64       63 1
     131       70       63 1
     132       65       64 1
     133      183       64 1
     134       66       65 1
     135       67       65 1
     136       68       67 1
     137       69       67 1
     138       70       69 1
     139      184       69 1
     140       71       70 1
     141       72       71 1
     142       73       72 1
     143       75       72 1
     144       74       73 1
     145      185       73 1
     146      186       74 1
     147       76       75 1
     148      187       75 1
     149      188       76 1
     150       78       77 1
     151      189       77 1
     152       79       78 1
     153       80       79 1
     154       93       79 1
     155      106       79 1
     156       81       80 1
     157       92       80 1
     158       82       81 1
     159      190       81 1
     160      191       81 1
     161       83       82 1
     162      192       82 1
     163       84       83 1
     164       91       83 1
     165       85       84 1
     166       86       85 1
     167      193       85 1
     168      194       85 1
     169       87       86 1
     170      195       86 1
     171      196       86 1
     172       88       87 1
     173      197       87 1
     174      198       87 1
     175       89       88 1
     176      199       88 1
     177      200       88 1
     178       90       89 1
     179      201       89 1
     180      202       89 1
     181      203       90 1
     182      204       90 1
     183      205       90 1
     184       92       91 1
     185      206       91 1
     186      207       92 1
     187       94       93 1
     188      105       93 1
     189       95       94 1
     190      208       94 1
     191       96       95 1
     192      209       95 1
     193       97       96 1
     194      104       96 1
     195       98       97 1
     196       99       98 1
     197      210       98 1
     198      211       98 1
     199      100       99 1
     200      212       99 1
     201      213       99 1
     202      101      100 1
     203      214      100 1
     204      215      100 1
     205      102      101 1
     206      216      101 1
     207      217      101 1
     208      103      102 1
     209      218      102 1
     210      219      102 1
     211      220      103 1
     212      221      103 1
     213      222      103 1
     214      105      104 1
     215      223      104 1
     216      224      105 1
     217      107      106 1
     218      108      107 1
     219      109      108 1
     220      116      108 1
     221      110      109 1
     222      111      110 1
     223      225      110 1
     224      226      110 1
     225      112      111 1
     226      227      111 1
     227      228      111 1
     228      113      112 1
     229      229      112 1
     230      230      112 1
     231      114      113 1
     232      231      113 1
     233      232      113 1
     234      115      114 1
     235      233      114 1
     236      234      114 1
     237      235      115 1
     238      236      115 1
     239      237      115 1
     240      117      116 1
     241      238      116 1
     242      118      117 1
     243      119      118 1
     244      120      119 1
     245      121      120 1
     246      122      121 1
     247      124      123 1
     248      129      123 1
     249      125      124 1
     250      127      124 1
     251      126      125 1
     252      239      125 1
     253      240      126 1
     254      128      127 1
     255      241      127 1
     256      242      128 1
     257      130      129 1
     258      243      130 1
@<TRIPOS>SUBSTRUCTURE
       1 RES             1 RESIDUE    0 **** ROOT      0
